data/sanity_checks/insufficient_gen_3_bus.dss
Clear

! ========================================================================
! SIMPLE THREE-PHASE NETWORK WITH INSUFFICIENT GENERATION
! ========================================================================

Set DefaultBaseFrequency=60

new circuit.Insufficient_Gen
~ basekv=0.4 pu=1.0 phases=3 MVAsc1=2000 MVAsc3=2100  bus1=Primary
~ Angle=30
~ baseMVA=1

! ========================================================================
! LINE CODES
! ========================================================================

New linecode.Main nphases=3 basefreq=50
~ rmatrix=(0.08|0.032 0.08|0.032 0.032 0.08)
~ xmatrix=(0.047|0.019 0.047|0.019 0.019 0.047)
~ cmatrix=(50.93|0 50.93|0 0 50.93)

! ========================================================================
! NETWORK TOPOLOGY
! ========================================================================

! Weak connection from source to generator bus
!New Line.SlackLine bus1=sourcebus.1.2.3 bus2=Primary.1.2.3 
!~ linecode=Main length=100 R1=100 X1=100  ! Very high impedance

! Switches to load buses
New Line.Switch1 bus1=Primary.1.2.3 bus2=BusA.1.2.3 
~ linecode=Main length=0.5 switch=yes enabled=yes

New Line.Switch2 bus1=BusA.1.2.3 bus2=BusB.1.2.3 
~ linecode=Main length=0.5 switch=yes enabled=yes

New Line.Switch3 bus1=Primary.1.2.3 bus2=BusB.1.2.3 
~ linecode=Main length=0.5 switch=yes enabled=yes

! ========================================================================
! LOADS - TOTAL: 62 kW
! ========================================================================

! Bus A - 50 kW total (distributed across phases)
New Load.L1 phases=1 bus1=BusA.1.0 kV=(0.4 3 sqrt /) kW=17 kvar=5 model=1
New Load.L2 phases=1 bus1=BusA.2.0 kV=(0.4 3 sqrt /) kW=17 kvar=5 model=1
New Load.L3 phases=1 bus1=BusA.3.0 kV=(0.4 3 sqrt /) kW=16 kvar=5 model=1

! Bus B - 12 kW total (distributed across phases)
New Load.L4 phases=1 bus1=BusB.1.0 kV=(0.4 3 sqrt /) kW=1 kvar=1.5 model=1
New Load.L5 phases=1 bus1=BusB.2.0 kV=(0.4 3 sqrt /) kW=1 kvar=1.5 model=1
New Load.L6 phases=1 bus1=BusB.3.0 kV=(0.4 3 sqrt /) kW=1 kvar=1.0 model=1

! ========================================================================
! SUMMARY
! ========================================================================
! Total Load:       62 kW (50 kW at BusA + 12 kW at BusB)
! Total Generation: 55 kW (hard limit 65 kVA)
! Deficit:          7 kW (generator insufficient by ~11%)
! ========================================================================

Set voltagebases=[0.4]
Calcv
Solve


// Show
Show Voltages LN Nodes
Show Currents Elem
Show Powers kVA Elem
Show Losses
Show Taps

