data/ieee_13_aw_edit/Insufficient_Gen_VLN_Node.Txt

LINE-GROUND and LINE-LINE VOLTAGES BY BUS & NODE

Bus     Node    VLN (kV)   Angle      pu     Base kV    Node-Node   VLL (kV)  Angle      pu

PRIMARY 1      0.23094 /_   30.0   0.99998     0.400        1-2    0.39999 /_   60.0   0.99998
   -    2      0.23094 /_  -90.0   0.99998     0.400        2-3    0.39999 /_  -60.0   0.99998
   -    3      0.23094 /_  150.0   0.99999     0.400        3-1    0.39999 /_  180.0   0.99999
BUSA .. 1      0.23087 /_   30.0   0.99968     0.400        1-2    0.39987 /_   60.0   0.99968
   -    2      0.23087 /_  -90.0   0.99968     0.400        2-3    0.39987 /_  -60.0   0.99968
   -    3      0.23087 /_  150.0    0.9997     0.400        3-1    0.39988 /_  180.0   0.99969
BUSB .. 1       0.2309 /_   30.0   0.99981     0.400        1-2    0.39992 /_   60.0   0.99981
   -    2       0.2309 /_  -90.0   0.99981     0.400        2-3    0.39993 /_  -60.0   0.99981
   -    3       0.2309 /_  150.0   0.99982     0.400        3-1    0.39993 /_  180.0   0.99981
